!VERSION
5
!SOLUTION, TYPE=HEAT
!HEAT
0.01,1.0,0.0,1.0,100,1e-06
!WRITE,RESULT, FREQUENCY=10
!WRITE,VISUAL, FREQUENCY=10
!OUTPUT_RES
ESTRAIN,ON
ESTRESS,ON
EMISES,ON
ISTRAIN,ON
ITEMP,ON
!OUTPUT_VIS
ESTRAIN,ON
ESTRESS,ON
EMISES,ON
TEMPERATURE,ON
!FIXTEMP
2,4.039605676242E-01
24,-5.657088521130E-01
25,-7.427319518864E-01
26,-6.918088280057E-01
27,-3.834545428296E-01
28,1.831726240257E-01
29,5.849213415431E-01
30,7.061571597912E-01
31,6.724534225815E-01
32,5.534423885907E-01
33,4.427701285869E-01
34,4.440868148649E-01
35,5.697189713137E-01
39,-4.765142961576E-01
40,-8.838005968663E-01
68,-4.703786842133E-01
69,-9.119141366185E-01
70,-9.822662953756E-01
71,-9.928778051427E-01
72,-9.939971409568E-01
# ... 632 like lines cut
!CFLUX, TYPE=PURE
1,1.638458361014E-02
3,1.557997517155E-02
4,4.229842698661E-03
5,9.685750967140E-04
6,3.505837702329E-04
7,3.032840938657E-04
8,4.766728314888E-04
9,1.317767787230E-03
10,4.870323258686E-03
11,1.412044220503E-02
12,1.870418217393E-02
13,1.987953216024E-02
14,2.602993334682E-02
15,3.059192684952E-02
16,3.493028609859E-02
17,3.107991817399E-02
18,1.771583549145E-02
19,5.314451795079E-03
20,1.927602429551E-03
21,1.382410508993E-03
# ... 900 like lines cut
!MATERIAL,NAME=MAT_ALL
!CONDUCTIVITY,TYPE=FULL,DEPENDENCIES=1
0.00323188591615557,0.004136547636349509,0.018084045983176377,0.00046224659633451376,0.003460220948324096,-0.0003152242328871476,-1.0
0.001615942958077785,0.0020682738181747543,0.009042022991588189,0.00023112329816725688,0.001730110474162048,-0.0001576121164435738,1.0
!SOLVER,METHOD=MUMPS,PRECOND=1,ITERLOG=YES,TIMELOG=YES
100000000, 1
1.0e-08, 1.0, 0.0
!VISUAL, method=PSR
!surface_num = 1
!surface 1
!output_type = COMPLETE_REORDER_AVS
!END
