!VERSION
5
!SOLUTION, TYPE=STATIC
!WRITE,RESULT, FREQUENCY=1
!WRITE,VISUAL, FREQUENCY=1
!OUTPUT_RES
ESTRAIN,ON
ESTRESS,ON
EMISES,ON
ISTRAIN,ON
ITEMP,ON
!OUTPUT_VIS
ESTRAIN,ON
ESTRESS,ON
EMISES,ON
TEMPERATURE,ON
!SPRING
475,1,1.000000E-04
475,2,1.000000E-04
475,3,1.000000E-04
471,1,1.000000E-04
471,2,1.000000E-04
471,3,1.000000E-04
477,1,1.000000E-04
477,2,1.000000E-04
477,3,1.000000E-04
!TEMPERATURE
1,-1.541355341139E-01
2,5.110657081811E-01
3,-8.797935232516E-02
4,-7.559957830601E-04
5,8.612340788347E-02
6,1.371470634366E-01
7,1.358932506457E-01
8,9.463194349178E-02
9,1.931298792379E-02
10,-7.173179267983E-02
11,-1.504035418856E-01
12,-1.818087907968E-01
13,-1.293677042368E-01
14,-5.117371471516E-02
15,3.160771088777E-02
16,1.000329034490E-01
17,1.259399918362E-01
18,1.082411409526E-01
19,4.752827044556E-02
20,-3.406146700056E-02
# ... 805 like lines cut
!MATERIAL,NAME=M1
!EXPANSION_COEFF,TYPE=FULL
-6.15953131E-04,-1.11963814E-04,-6.83705542E-04,5.05112302E-04,2.26563727E-04,-5.09993135E-04
!MATERIAL,NAME=M2
!EXPANSION_COEFF,TYPE=FULL
-6.15953131E-04,-1.11963814E-04,-6.83705542E-04,5.05112302E-04,2.26563727E-04,-5.09993135E-04
!MATERIAL,NAME=M3
!EXPANSION_COEFF,TYPE=FULL
-6.15953131E-04,-1.11963814E-04,-6.83705542E-04,5.05112302E-04,2.26563727E-04,-5.09993135E-04
!MATERIAL,NAME=M4
!EXPANSION_COEFF,TYPE=FULL
-6.15953131E-04,-1.11963814E-04,-6.83705542E-04,5.05112302E-04,2.26563727E-04,-5.09993135E-04
!MATERIAL,NAME=M5
!EXPANSION_COEFF,TYPE=FULL
-6.15953131E-04,-1.11963814E-04,-6.83705542E-04,5.05112302E-04,2.26563727E-04,-5.09993135E-04
!MATERIAL,NAME=M6
!EXPANSION_COEFF,TYPE=FULL
-6.15953131E-04,-1.11963814E-04,-6.83705542E-04,5.05112302E-04,2.26563727E-04,-5.09993135E-04
!MATERIAL,NAME=M7
!EXPANSION_COEFF,TYPE=FULL
-6.15953131E-04,-1.11963814E-04,-6.83705542E-04,5.05112302E-04,2.26563727E-04,-5.09993135E-04
!MATERIAL,NAME=M8
!EXPANSION_COEFF,TYPE=FULL
-6.15953131E-04,-1.11963814E-04,-6.83705542E-04,5.05112302E-04,2.26563727E-04,-5.09993135E-04
!MATERIAL,NAME=M9
!EXPANSION_COEFF,TYPE=FULL
-6.15953131E-04,-1.11963814E-04,-6.83705542E-04,5.05112302E-04,2.26563727E-04,-5.09993135E-04
!MATERIAL,NAME=M10
!EXPANSION_COEFF,TYPE=FULL
-6.15953131E-04,-1.11963814E-04,-6.83705542E-04,5.05112302E-04,2.26563727E-04,-5.09993135E-04
!MATERIAL,NAME=M11
!EXPANSION_COEFF,TYPE=FULL
-6.15953131E-04,-1.11963814E-04,-6.83705542E-04,5.05112302E-04,2.26563727E-04,-5.09993135E-04
!MATERIAL,NAME=M12
!EXPANSION_COEFF,TYPE=FULL
-6.15953131E-04,-1.11963814E-04,-6.83705542E-04,5.05112302E-04,2.26563727E-04,-5.09993135E-04
!MATERIAL,NAME=M13
!EXPANSION_COEFF,TYPE=FULL
-6.15953131E-04,-1.11963814E-04,-6.83705542E-04,5.05112302E-04,2.26563727E-04,-5.09993135E-04
!MATERIAL,NAME=M14
!EXPANSION_COEFF,TYPE=FULL
-6.15953131E-04,-1.11963814E-04,-6.83705542E-04,5.05112302E-04,2.26563727E-04,-5.09993135E-04
!MATERIAL,NAME=M15
!EXPANSION_COEFF,TYPE=FULL
-6.15953131E-04,-1.11963814E-04,-6.83705542E-04,5.05112302E-04,2.26563727E-04,-5.09993135E-04
!MATERIAL,NAME=M16
!EXPANSION_COEFF,TYPE=FULL
-6.15953131E-04,-1.11963814E-04,-6.83705542E-04,5.05112302E-04,2.26563727E-04,-5.09993135E-04
!MATERIAL,NAME=M17
!EXPANSION_COEFF,TYPE=FULL
-6.15953131E-04,-1.11963814E-04,-6.83705542E-04,5.05112302E-04,2.26563727E-04,-5.09993135E-04
!MATERIAL,NAME=M18
!EXPANSION_COEFF,TYPE=FULL
-6.15953131E-04,-1.11963814E-04,-6.83705542E-04,5.05112302E-04,2.26563727E-04,-5.09993135E-04
!MATERIAL,NAME=M19
!EXPANSION_COEFF,TYPE=FULL
-6.15953131E-04,-1.11963814E-04,-6.83705542E-04,5.05112302E-04,2.26563727E-04,-5.09993135E-04
!MATERIAL,NAME=M20
!EXPANSION_COEFF,TYPE=FULL
-6.15953131E-04,-1.11963814E-04,-6.83705542E-04,5.05112302E-04,2.26563727E-04,-5.09993135E-04
!MATERIAL,NAME=M21
!EXPANSION_COEFF,TYPE=FULL
-6.15953131E-04,-1.11963814E-04,-6.83705542E-04,5.05112302E-04,2.26563727E-04,-5.09993135E-04
!MATERIAL,NAME=M22
!EXPANSION_COEFF,TYPE=FULL
-6.15953131E-04,-1.11963814E-04,-6.83705542E-04,5.05112302E-04,2.26563727E-04,-5.09993135E-04
!MATERIAL,NAME=M23
!EXPANSION_COEFF,TYPE=FULL
-6.15953131E-04,-1.11963814E-04,-6.83705542E-04,5.05112302E-04,2.26563727E-04,-5.09993135E-04
!MATERIAL,NAME=M24
!EXPANSION_COEFF,TYPE=FULL
-6.15953131E-04,-1.11963814E-04,-6.83705542E-04,5.05112302E-04,2.26563727E-04,-5.09993135E-04
!MATERIAL,NAME=M25
!EXPANSION_COEFF,TYPE=FULL
-6.15953131E-04,-1.11963814E-04,-6.83705542E-04,5.05112302E-04,2.26563727E-04,-5.09993135E-04
!MATERIAL,NAME=M26
!EXPANSION_COEFF,TYPE=FULL
-6.15953131E-04,-1.11963814E-04,-6.83705542E-04,5.05112302E-04,2.26563727E-04,-5.09993135E-04
!MATERIAL,NAME=M27
!EXPANSION_COEFF,TYPE=FULL
-6.15953131E-04,-1.11963814E-04,-6.83705542E-04,5.05112302E-04,2.26563727E-04,-5.09993135E-04
!MATERIAL,NAME=M28
!EXPANSION_COEFF,TYPE=FULL
-6.15953131E-04,-1.11963814E-04,-6.83705542E-04,5.05112302E-04,2.26563727E-04,-5.09993135E-04
!MATERIAL,NAME=M29
!EXPANSION_COEFF,TYPE=FULL
-6.15953131E-04,-1.11963814E-04,-6.83705542E-04,5.05112302E-04,2.26563727E-04,-5.09993135E-04
!MATERIAL,NAME=M30
!EXPANSION_COEFF,TYPE=FULL
-6.15953131E-04,-1.11963814E-04,-6.83705542E-04,5.05112302E-04,2.26563727E-04,-5.09993135E-04
!MATERIAL,NAME=M31
!EXPANSION_COEFF,TYPE=FULL
-6.15953131E-04,-1.11963814E-04,-6.83705542E-04,5.05112302E-04,2.26563727E-04,-5.09993135E-04
!MATERIAL,NAME=M32
!EXPANSION_COEFF,TYPE=FULL
-6.15953131E-04,-1.11963814E-04,-6.83705542E-04,5.05112302E-04,2.26563727E-04,-5.09993135E-04
!MATERIAL,NAME=M33
!EXPANSION_COEFF,TYPE=FULL
-6.15953131E-04,-1.11963814E-04,-6.83705542E-04,5.05112302E-04,2.26563727E-04,-5.09993135E-04
!MATERIAL,NAME=M34
!EXPANSION_COEFF,TYPE=FULL
-6.15953131E-04,-1.11963814E-04,-6.83705542E-04,5.05112302E-04,2.26563727E-04,-5.09993135E-04
!MATERIAL,NAME=M35
!EXPANSION_COEFF,TYPE=FULL
-6.15953131E-04,-1.11963814E-04,-6.83705542E-04,5.05112302E-04,2.26563727E-04,-5.09993135E-04
!MATERIAL,NAME=M36
!EXPANSION_COEFF,TYPE=FULL
-6.15953131E-04,-1.11963814E-04,-6.83705542E-04,5.05112302E-04,2.26563727E-04,-5.09993135E-04
!MATERIAL,NAME=M37
!EXPANSION_COEFF,TYPE=FULL
-6.15953131E-04,-1.11963814E-04,-6.83705542E-04,5.05112302E-04,2.26563727E-04,-5.09993135E-04
!MATERIAL,NAME=M38
!EXPANSION_COEFF,TYPE=FULL
-6.15953131E-04,-1.11963814E-04,-6.83705542E-04,5.05112302E-04,2.26563727E-04,-5.09993135E-04
!MATERIAL,NAME=M39
!EXPANSION_COEFF,TYPE=FULL
-6.15953131E-04,-1.11963814E-04,-6.83705542E-04,5.05112302E-04,2.26563727E-04,-5.09993135E-04
!MATERIAL,NAME=M40
!EXPANSION_COEFF,TYPE=FULL
-6.15953131E-04,-1.11963814E-04,-6.83705542E-04,5.05112302E-04,2.26563727E-04,-5.09993135E-04
!MATERIAL,NAME=M41
!EXPANSION_COEFF,TYPE=FULL
-6.15953131E-04,-1.11963814E-04,-6.83705542E-04,5.05112302E-04,2.26563727E-04,-5.09993135E-04
!MATERIAL,NAME=M42
!EXPANSION_COEFF,TYPE=FULL
-6.15953131E-04,-1.11963814E-04,-6.83705542E-04,5.05112302E-04,2.26563727E-04,-5.09993135E-04
!MATERIAL,NAME=M43
!EXPANSION_COEFF,TYPE=FULL
-6.15953131E-04,-1.11963814E-04,-6.83705542E-04,5.05112302E-04,2.26563727E-04,-5.09993135E-04
!MATERIAL,NAME=M44
!EXPANSION_COEFF,TYPE=FULL
-6.15953131E-04,-1.11963814E-04,-6.83705542E-04,5.05112302E-04,2.26563727E-04,-5.09993135E-04
!MATERIAL,NAME=M45
!EXPANSION_COEFF,TYPE=FULL
-6.15953131E-04,-1.11963814E-04,-6.83705542E-04,5.05112302E-04,2.26563727E-04,-5.09993135E-04
!MATERIAL,NAME=M46
!EXPANSION_COEFF,TYPE=FULL
-6.15953131E-04,-1.11963814E-04,-6.83705542E-04,5.05112302E-04,2.26563727E-04,-5.09993135E-04
!MATERIAL,NAME=M47
!EXPANSION_COEFF,TYPE=FULL
-6.15953131E-04,-1.11963814E-04,-6.83705542E-04,5.05112302E-04,2.26563727E-04,-5.09993135E-04
!MATERIAL,NAME=M48
!EXPANSION_COEFF,TYPE=FULL
-6.15953131E-04,-1.11963814E-04,-6.83705542E-04,5.05112302E-04,2.26563727E-04,-5.09993135E-04
!MATERIAL,NAME=M49
!EXPANSION_COEFF,TYPE=FULL
-6.15953131E-04,-1.11963814E-04,-6.83705542E-04,5.05112302E-04,2.26563727E-04,-5.09993135E-04
!MATERIAL,NAME=M50
!EXPANSION_COEFF,TYPE=FULL
-6.15953131E-04,-1.11963814E-04,-6.83705542E-04,5.05112302E-04,2.26563727E-04,-5.09993135E-04
!MATERIAL,NAME=M51
!EXPANSION_COEFF,TYPE=FULL
-6.15953131E-04,-1.11963814E-04,-6.83705542E-04,5.05112302E-04,2.26563727E-04,-5.09993135E-04
!MATERIAL,NAME=M52
!EXPANSION_COEFF,TYPE=FULL
-6.15953131E-04,-1.11963814E-04,-6.83705542E-04,5.05112302E-04,2.26563727E-04,-5.09993135E-04
!MATERIAL,NAME=M53
!EXPANSION_COEFF,TYPE=FULL
-6.15953131E-04,-1.11963814E-04,-6.83705542E-04,5.05112302E-04,2.26563727E-04,-5.09993135E-04
!MATERIAL,NAME=M54
!EXPANSION_COEFF,TYPE=FULL
-6.15953131E-04,-1.11963814E-04,-6.83705542E-04,5.05112302E-04,2.26563727E-04,-5.09993135E-04
!MATERIAL,NAME=M55
!EXPANSION_COEFF,TYPE=FULL
-6.15953131E-04,-1.11963814E-04,-6.83705542E-04,5.05112302E-04,2.26563727E-04,-5.09993135E-04
!MATERIAL,NAME=M56
!EXPANSION_COEFF,TYPE=FULL
-6.15953131E-04,-1.11963814E-04,-6.83705542E-04,5.05112302E-04,2.26563727E-04,-5.09993135E-04
!MATERIAL,NAME=M57
!EXPANSION_COEFF,TYPE=FULL
-6.15953131E-04,-1.11963814E-04,-6.83705542E-04,5.05112302E-04,2.26563727E-04,-5.09993135E-04
!MATERIAL,NAME=M58
!EXPANSION_COEFF,TYPE=FULL
-6.15953131E-04,-1.11963814E-04,-6.83705542E-04,5.05112302E-04,2.26563727E-04,-5.09993135E-04
!MATERIAL,NAME=M59
!EXPANSION_COEFF,TYPE=FULL
-6.15953131E-04,-1.11963814E-04,-6.83705542E-04,5.05112302E-04,2.26563727E-04,-5.09993135E-04
!MATERIAL,NAME=M60
!EXPANSION_COEFF,TYPE=FULL
-6.15953131E-04,-1.11963814E-04,-6.83705542E-04,5.05112302E-04,2.26563727E-04,-5.09993135E-04
!MATERIAL,NAME=M61
!EXPANSION_COEFF,TYPE=FULL
-6.15953131E-04,-1.11963814E-04,-6.83705542E-04,5.05112302E-04,2.26563727E-04,-5.09993135E-04
!MATERIAL,NAME=M62
!EXPANSION_COEFF,TYPE=FULL
-6.15953131E-04,-1.11963814E-04,-6.83705542E-04,5.05112302E-04,2.26563727E-04,-5.09993135E-04
!MATERIAL,NAME=M63
!EXPANSION_COEFF,TYPE=FULL
-6.15953131E-04,-1.11963814E-04,-6.83705542E-04,5.05112302E-04,2.26563727E-04,-5.09993135E-04
!MATERIAL,NAME=M64
!EXPANSION_COEFF,TYPE=FULL
-6.15953131E-04,-1.11963814E-04,-6.83705542E-04,5.05112302E-04,2.26563727E-04,-5.09993135E-04
!MATERIAL,NAME=M65
!EXPANSION_COEFF,TYPE=FULL
-6.15953131E-04,-1.11963814E-04,-6.83705542E-04,5.05112302E-04,2.26563727E-04,-5.09993135E-04
!MATERIAL,NAME=M66
!EXPANSION_COEFF,TYPE=FULL
-6.15953131E-04,-1.11963814E-04,-6.83705542E-04,5.05112302E-04,2.26563727E-04,-5.09993135E-04
!MATERIAL,NAME=M67
!EXPANSION_COEFF,TYPE=FULL
-6.15953131E-04,-1.11963814E-04,-6.83705542E-04,5.05112302E-04,2.26563727E-04,-5.09993135E-04
!MATERIAL,NAME=M68
!EXPANSION_COEFF,TYPE=FULL
-6.15953131E-04,-1.11963814E-04,-6.83705542E-04,5.05112302E-04,2.26563727E-04,-5.09993135E-04
!MATERIAL,NAME=M69
!EXPANSION_COEFF,TYPE=FULL
-6.15953131E-04,-1.11963814E-04,-6.83705542E-04,5.05112302E-04,2.26563727E-04,-5.09993135E-04
!MATERIAL,NAME=M70
!EXPANSION_COEFF,TYPE=FULL
-6.15953131E-04,-1.11963814E-04,-6.83705542E-04,5.05112302E-04,2.26563727E-04,-5.09993135E-04
!MATERIAL,NAME=M71
!EXPANSION_COEFF,TYPE=FULL
-6.15953131E-04,-1.11963814E-04,-6.83705542E-04,5.05112302E-04,2.26563727E-04,-5.09993135E-04
!MATERIAL,NAME=M72
!EXPANSION_COEFF,TYPE=FULL
-6.15953131E-04,-1.11963814E-04,-6.83705542E-04,5.05112302E-04,2.26563727E-04,-5.09993135E-04
!MATERIAL,NAME=M73
!EXPANSION_COEFF,TYPE=FULL
-6.15953131E-04,-1.11963814E-04,-6.83705542E-04,5.05112302E-04,2.26563727E-04,-5.09993135E-04
!MATERIAL,NAME=M74
!EXPANSION_COEFF,TYPE=FULL
-6.15953131E-04,-1.11963814E-04,-6.83705542E-04,5.05112302E-04,2.26563727E-04,-5.09993135E-04
!MATERIAL,NAME=M75
!EXPANSION_COEFF,TYPE=FULL
-6.15953131E-04,-1.11963814E-04,-6.83705542E-04,5.05112302E-04,2.26563727E-04,-5.09993135E-04
!MATERIAL,NAME=M76
!EXPANSION_COEFF,TYPE=FULL
-6.15953131E-04,-1.11963814E-04,-6.83705542E-04,5.05112302E-04,2.26563727E-04,-5.09993135E-04
!MATERIAL,NAME=M77
!EXPANSION_COEFF,TYPE=FULL
-6.15953131E-04,-1.11963814E-04,-6.83705542E-04,5.05112302E-04,2.26563727E-04,-5.09993135E-04
!MATERIAL,NAME=M78
!EXPANSION_COEFF,TYPE=FULL
-6.15953131E-04,-1.11963814E-04,-6.83705542E-04,5.05112302E-04,2.26563727E-04,-5.09993135E-04
!MATERIAL,NAME=M79
!EXPANSION_COEFF,TYPE=FULL
-6.15953131E-04,-1.11963814E-04,-6.83705542E-04,5.05112302E-04,2.26563727E-04,-5.09993135E-04
!MATERIAL,NAME=M80
!EXPANSION_COEFF,TYPE=FULL
-6.15953131E-04,-1.11963814E-04,-6.83705542E-04,5.05112302E-04,2.26563727E-04,-5.09993135E-04
!MATERIAL,NAME=M81
!EXPANSION_COEFF,TYPE=FULL
-6.15953131E-04,-1.11963814E-04,-6.83705542E-04,5.05112302E-04,2.26563727E-04,-5.09993135E-04
!MATERIAL,NAME=M82
!EXPANSION_COEFF,TYPE=FULL
-6.15953131E-04,-1.11963814E-04,-6.83705542E-04,5.05112302E-04,2.26563727E-04,-5.09993135E-04
!MATERIAL,NAME=M83
!EXPANSION_COEFF,TYPE=FULL
-6.15953131E-04,-1.11963814E-04,-6.83705542E-04,5.05112302E-04,2.26563727E-04,-5.09993135E-04
!MATERIAL,NAME=M84
!EXPANSION_COEFF,TYPE=FULL
-6.15953131E-04,-1.11963814E-04,-6.83705542E-04,5.05112302E-04,2.26563727E-04,-5.09993135E-04
!MATERIAL,NAME=M85
!EXPANSION_COEFF,TYPE=FULL
-6.15953131E-04,-1.11963814E-04,-6.83705542E-04,5.05112302E-04,2.26563727E-04,-5.09993135E-04
!MATERIAL,NAME=M86
!EXPANSION_COEFF,TYPE=FULL
-6.15953131E-04,-1.11963814E-04,-6.83705542E-04,5.05112302E-04,2.26563727E-04,-5.09993135E-04
!MATERIAL,NAME=M87
!EXPANSION_COEFF,TYPE=FULL
-6.15953131E-04,-1.11963814E-04,-6.83705542E-04,5.05112302E-04,2.26563727E-04,-5.09993135E-04
!MATERIAL,NAME=M88
!EXPANSION_COEFF,TYPE=FULL
-6.15953131E-04,-1.11963814E-04,-6.83705542E-04,5.05112302E-04,2.26563727E-04,-5.09993135E-04
!MATERIAL,NAME=M89
!EXPANSION_COEFF,TYPE=FULL
-6.15953131E-04,-1.11963814E-04,-6.83705542E-04,5.05112302E-04,2.26563727E-04,-5.09993135E-04
!MATERIAL,NAME=M90
!EXPANSION_COEFF,TYPE=FULL
-6.15953131E-04,-1.11963814E-04,-6.83705542E-04,5.05112302E-04,2.26563727E-04,-5.09993135E-04
!MATERIAL,NAME=M91
!EXPANSION_COEFF,TYPE=FULL
-6.15953131E-04,-1.11963814E-04,-6.83705542E-04,5.05112302E-04,2.26563727E-04,-5.09993135E-04
!MATERIAL,NAME=M92
!EXPANSION_COEFF,TYPE=FULL
-6.15953131E-04,-1.11963814E-04,-6.83705542E-04,5.05112302E-04,2.26563727E-04,-5.09993135E-04
!MATERIAL,NAME=M93
!EXPANSION_COEFF,TYPE=FULL
-6.15953131E-04,-1.11963814E-04,-6.83705542E-04,5.05112302E-04,2.26563727E-04,-5.09993135E-04
!MATERIAL,NAME=M94
!EXPANSION_COEFF,TYPE=FULL
-6.15953131E-04,-1.11963814E-04,-6.83705542E-04,5.05112302E-04,2.26563727E-04,-5.09993135E-04
!MATERIAL,NAME=M95
!EXPANSION_COEFF,TYPE=FULL
-6.15953131E-04,-1.11963814E-04,-6.83705542E-04,5.05112302E-04,2.26563727E-04,-5.09993135E-04
!MATERIAL,NAME=M96
!EXPANSION_COEFF,TYPE=FULL
-6.15953131E-04,-1.11963814E-04,-6.83705542E-04,5.05112302E-04,2.26563727E-04,-5.09993135E-04
!MATERIAL,NAME=M97
!EXPANSION_COEFF,TYPE=FULL
-6.15953131E-04,-1.11963814E-04,-6.83705542E-04,5.05112302E-04,2.26563727E-04,-5.09993135E-04
!MATERIAL,NAME=M98
!EXPANSION_COEFF,TYPE=FULL
-6.15953131E-04,-1.11963814E-04,-6.83705542E-04,5.05112302E-04,2.26563727E-04,-5.09993135E-04
!MATERIAL,NAME=M99
!EXPANSION_COEFF,TYPE=FULL
-6.15953131E-04,-1.11963814E-04,-6.83705542E-04,5.05112302E-04,2.26563727E-04,-5.09993135E-04
!MATERIAL,NAME=M100
!EXPANSION_COEFF,TYPE=FULL
-6.15953131E-04,-1.11963814E-04,-6.83705542E-04,5.05112302E-04,2.26563727E-04,-5.09993135E-04
!MATERIAL,NAME=M101
!EXPANSION_COEFF,TYPE=FULL
-6.15953131E-04,-1.11963814E-04,-6.83705542E-04,5.05112302E-04,2.26563727E-04,-5.09993135E-04
!MATERIAL,NAME=M102
!EXPANSION_COEFF,TYPE=FULL
-6.15953131E-04,-1.11963814E-04,-6.83705542E-04,5.05112302E-04,2.26563727E-04,-5.09993135E-04
!MATERIAL,NAME=M103
!EXPANSION_COEFF,TYPE=FULL
-6.15953131E-04,-1.11963814E-04,-6.83705542E-04,5.05112302E-04,2.26563727E-04,-5.09993135E-04
!MATERIAL,NAME=M104
!EXPANSION_COEFF,TYPE=FULL
-6.15953131E-04,-1.11963814E-04,-6.83705542E-04,5.05112302E-04,2.26563727E-04,-5.09993135E-04
!MATERIAL,NAME=M105
!EXPANSION_COEFF,TYPE=FULL
-6.15953131E-04,-1.11963814E-04,-6.83705542E-04,5.05112302E-04,2.26563727E-04,-5.09993135E-04
!MATERIAL,NAME=M106
!EXPANSION_COEFF,TYPE=FULL
-6.15953131E-04,-1.11963814E-04,-6.83705542E-04,5.05112302E-04,2.26563727E-04,-5.09993135E-04
!MATERIAL,NAME=M107
!EXPANSION_COEFF,TYPE=FULL
-6.15953131E-04,-1.11963814E-04,-6.83705542E-04,5.05112302E-04,2.26563727E-04,-5.09993135E-04
!MATERIAL,NAME=M108
!EXPANSION_COEFF,TYPE=FULL
-6.15953131E-04,-1.11963814E-04,-6.83705542E-04,5.05112302E-04,2.26563727E-04,-5.09993135E-04
!MATERIAL,NAME=M109
!EXPANSION_COEFF,TYPE=FULL
-6.15953131E-04,-1.11963814E-04,-6.83705542E-04,5.05112302E-04,2.26563727E-04,-5.09993135E-04
!MATERIAL,NAME=M110
!EXPANSION_COEFF,TYPE=FULL
-6.15953131E-04,-1.11963814E-04,-6.83705542E-04,5.05112302E-04,2.26563727E-04,-5.09993135E-04
!MATERIAL,NAME=M111
!EXPANSION_COEFF,TYPE=FULL
-6.15953131E-04,-1.11963814E-04,-6.83705542E-04,5.05112302E-04,2.26563727E-04,-5.09993135E-04
!MATERIAL,NAME=M112
!EXPANSION_COEFF,TYPE=FULL
-6.15953131E-04,-1.11963814E-04,-6.83705542E-04,5.05112302E-04,2.26563727E-04,-5.09993135E-04
!MATERIAL,NAME=M113
!EXPANSION_COEFF,TYPE=FULL
-6.15953131E-04,-1.11963814E-04,-6.83705542E-04,5.05112302E-04,2.26563727E-04,-5.09993135E-04
!MATERIAL,NAME=M114
!EXPANSION_COEFF,TYPE=FULL
-6.15953131E-04,-1.11963814E-04,-6.83705542E-04,5.05112302E-04,2.26563727E-04,-5.09993135E-04
!MATERIAL,NAME=M115
!EXPANSION_COEFF,TYPE=FULL
-6.15953131E-04,-1.11963814E-04,-6.83705542E-04,5.05112302E-04,2.26563727E-04,-5.09993135E-04
!MATERIAL,NAME=M116
!EXPANSION_COEFF,TYPE=FULL
-6.15953131E-04,-1.11963814E-04,-6.83705542E-04,5.05112302E-04,2.26563727E-04,-5.09993135E-04
!MATERIAL,NAME=M117
!EXPANSION_COEFF,TYPE=FULL
-6.15953131E-04,-1.11963814E-04,-6.83705542E-04,5.05112302E-04,2.26563727E-04,-5.09993135E-04
!MATERIAL,NAME=M118
!EXPANSION_COEFF,TYPE=FULL
-6.15953131E-04,-1.11963814E-04,-6.83705542E-04,5.05112302E-04,2.26563727E-04,-5.09993135E-04
!MATERIAL,NAME=M119
!EXPANSION_COEFF,TYPE=FULL
-6.15953131E-04,-1.11963814E-04,-6.83705542E-04,5.05112302E-04,2.26563727E-04,-5.09993135E-04
!MATERIAL,NAME=M120
!EXPANSION_COEFF,TYPE=FULL
-6.15953131E-04,-1.11963814E-04,-6.83705542E-04,5.05112302E-04,2.26563727E-04,-5.09993135E-04
!MATERIAL,NAME=M121
!EXPANSION_COEFF,TYPE=FULL
-6.15953131E-04,-1.11963814E-04,-6.83705542E-04,5.05112302E-04,2.26563727E-04,-5.09993135E-04
!MATERIAL,NAME=M122
!EXPANSION_COEFF,TYPE=FULL
-6.15953131E-04,-1.11963814E-04,-6.83705542E-04,5.05112302E-04,2.26563727E-04,-5.09993135E-04
!MATERIAL,NAME=M123
!EXPANSION_COEFF,TYPE=FULL
-6.15953131E-04,-1.11963814E-04,-6.83705542E-04,5.05112302E-04,2.26563727E-04,-5.09993135E-04
!MATERIAL,NAME=M124
!EXPANSION_COEFF,TYPE=FULL
-6.15953131E-04,-1.11963814E-04,-6.83705542E-04,5.05112302E-04,2.26563727E-04,-5.09993135E-04
!MATERIAL,NAME=M125
!EXPANSION_COEFF,TYPE=FULL
-6.15953131E-04,-1.11963814E-04,-6.83705542E-04,5.05112302E-04,2.26563727E-04,-5.09993135E-04
!MATERIAL,NAME=M126
!EXPANSION_COEFF,TYPE=FULL
-6.15953131E-04,-1.11963814E-04,-6.83705542E-04,5.05112302E-04,2.26563727E-04,-5.09993135E-04
!MATERIAL,NAME=M127
!EXPANSION_COEFF,TYPE=FULL
-6.15953131E-04,-1.11963814E-04,-6.83705542E-04,5.05112302E-04,2.26563727E-04,-5.09993135E-04
!MATERIAL,NAME=M128
!EXPANSION_COEFF,TYPE=FULL
-6.15953131E-04,-1.11963814E-04,-6.83705542E-04,5.05112302E-04,2.26563727E-04,-5.09993135E-04
!MATERIAL,NAME=M129
!EXPANSION_COEFF,TYPE=FULL
-6.15953131E-04,-1.11963814E-04,-6.83705542E-04,5.05112302E-04,2.26563727E-04,-5.09993135E-04
!MATERIAL,NAME=M130
!EXPANSION_COEFF,TYPE=FULL
-6.15953131E-04,-1.11963814E-04,-6.83705542E-04,5.05112302E-04,2.26563727E-04,-5.09993135E-04
!MATERIAL,NAME=M131
!EXPANSION_COEFF,TYPE=FULL
-6.15953131E-04,-1.11963814E-04,-6.83705542E-04,5.05112302E-04,2.26563727E-04,-5.09993135E-04
!MATERIAL,NAME=M132
!EXPANSION_COEFF,TYPE=FULL
-6.15953131E-04,-1.11963814E-04,-6.83705542E-04,5.05112302E-04,2.26563727E-04,-5.09993135E-04
!MATERIAL,NAME=M133
!EXPANSION_COEFF,TYPE=FULL
-6.15953131E-04,-1.11963814E-04,-6.83705542E-04,5.05112302E-04,2.26563727E-04,-5.09993135E-04
!MATERIAL,NAME=M134
!EXPANSION_COEFF,TYPE=FULL
-6.15953131E-04,-1.11963814E-04,-6.83705542E-04,5.05112302E-04,2.26563727E-04,-5.09993135E-04
!MATERIAL,NAME=M135
!EXPANSION_COEFF,TYPE=FULL
-6.15953131E-04,-1.11963814E-04,-6.83705542E-04,5.05112302E-04,2.26563727E-04,-5.09993135E-04
!MATERIAL,NAME=M136
!EXPANSION_COEFF,TYPE=FULL
-6.15953131E-04,-1.11963814E-04,-6.83705542E-04,5.05112302E-04,2.26563727E-04,-5.09993135E-04
!MATERIAL,NAME=M137
!EXPANSION_COEFF,TYPE=FULL
-6.15953131E-04,-1.11963814E-04,-6.83705542E-04,5.05112302E-04,2.26563727E-04,-5.09993135E-04
!MATERIAL,NAME=M138
!EXPANSION_COEFF,TYPE=FULL
-6.15953131E-04,-1.11963814E-04,-6.83705542E-04,5.05112302E-04,2.26563727E-04,-5.09993135E-04
!MATERIAL,NAME=M139
!EXPANSION_COEFF,TYPE=FULL
-6.15953131E-04,-1.11963814E-04,-6.83705542E-04,5.05112302E-04,2.26563727E-04,-5.09993135E-04
!MATERIAL,NAME=M140
!EXPANSION_COEFF,TYPE=FULL
-6.15953131E-04,-1.11963814E-04,-6.83705542E-04,5.05112302E-04,2.26563727E-04,-5.09993135E-04
!MATERIAL,NAME=M141
!EXPANSION_COEFF,TYPE=FULL
-6.15953131E-04,-1.11963814E-04,-6.83705542E-04,5.05112302E-04,2.26563727E-04,-5.09993135E-04
!MATERIAL,NAME=M142
!EXPANSION_COEFF,TYPE=FULL
-6.15953131E-04,-1.11963814E-04,-6.83705542E-04,5.05112302E-04,2.26563727E-04,-5.09993135E-04
!MATERIAL,NAME=M143
!EXPANSION_COEFF,TYPE=FULL
-6.15953131E-04,-1.11963814E-04,-6.83705542E-04,5.05112302E-04,2.26563727E-04,-5.09993135E-04
!MATERIAL,NAME=M144
!EXPANSION_COEFF,TYPE=FULL
-6.15953131E-04,-1.11963814E-04,-6.83705542E-04,5.05112302E-04,2.26563727E-04,-5.09993135E-04
!MATERIAL,NAME=M145
!EXPANSION_COEFF,TYPE=FULL
-6.15953131E-04,-1.11963814E-04,-6.83705542E-04,5.05112302E-04,2.26563727E-04,-5.09993135E-04
!MATERIAL,NAME=M146
!EXPANSION_COEFF,TYPE=FULL
-6.15953131E-04,-1.11963814E-04,-6.83705542E-04,5.05112302E-04,2.26563727E-04,-5.09993135E-04
!MATERIAL,NAME=M147
!EXPANSION_COEFF,TYPE=FULL
-6.15953131E-04,-1.11963814E-04,-6.83705542E-04,5.05112302E-04,2.26563727E-04,-5.09993135E-04
!MATERIAL,NAME=M148
!EXPANSION_COEFF,TYPE=FULL
-6.15953131E-04,-1.11963814E-04,-6.83705542E-04,5.05112302E-04,2.26563727E-04,-5.09993135E-04
!MATERIAL,NAME=M149
!EXPANSION_COEFF,TYPE=FULL
-6.15953131E-04,-1.11963814E-04,-6.83705542E-04,5.05112302E-04,2.26563727E-04,-5.09993135E-04
!MATERIAL,NAME=M150
!EXPANSION_COEFF,TYPE=FULL
-6.15953131E-04,-1.11963814E-04,-6.83705542E-04,5.05112302E-04,2.26563727E-04,-5.09993135E-04
!MATERIAL,NAME=M151
!EXPANSION_COEFF,TYPE=FULL
-6.15953131E-04,-1.11963814E-04,-6.83705542E-04,5.05112302E-04,2.26563727E-04,-5.09993135E-04
!MATERIAL,NAME=M152
!EXPANSION_COEFF,TYPE=FULL
-6.15953131E-04,-1.11963814E-04,-6.83705542E-04,5.05112302E-04,2.26563727E-04,-5.09993135E-04
!MATERIAL,NAME=M153
!EXPANSION_COEFF,TYPE=FULL
-6.15953131E-04,-1.11963814E-04,-6.83705542E-04,5.05112302E-04,2.26563727E-04,-5.09993135E-04
!MATERIAL,NAME=M154
!EXPANSION_COEFF,TYPE=FULL
-6.15953131E-04,-1.11963814E-04,-6.83705542E-04,5.05112302E-04,2.26563727E-04,-5.09993135E-04
!MATERIAL,NAME=M155
!EXPANSION_COEFF,TYPE=FULL
-6.15953131E-04,-1.11963814E-04,-6.83705542E-04,5.05112302E-04,2.26563727E-04,-5.09993135E-04
!MATERIAL,NAME=M156
!EXPANSION_COEFF,TYPE=FULL
-6.15953131E-04,-1.11963814E-04,-6.83705542E-04,5.05112302E-04,2.26563727E-04,-5.09993135E-04
!MATERIAL,NAME=M157
!EXPANSION_COEFF,TYPE=FULL
-6.15953131E-04,-1.11963814E-04,-6.83705542E-04,5.05112302E-04,2.26563727E-04,-5.09993135E-04
!MATERIAL,NAME=M158
!EXPANSION_COEFF,TYPE=FULL
-6.15953131E-04,-1.11963814E-04,-6.83705542E-04,5.05112302E-04,2.26563727E-04,-5.09993135E-04
!MATERIAL,NAME=M159
!EXPANSION_COEFF,TYPE=FULL
-6.15953131E-04,-1.11963814E-04,-6.83705542E-04,5.05112302E-04,2.26563727E-04,-5.09993135E-04
!MATERIAL,NAME=M160
!EXPANSION_COEFF,TYPE=FULL
-6.15953131E-04,-1.11963814E-04,-6.83705542E-04,5.05112302E-04,2.26563727E-04,-5.09993135E-04
!MATERIAL,NAME=M161
!EXPANSION_COEFF,TYPE=FULL
-6.15953131E-04,-1.11963814E-04,-6.83705542E-04,5.05112302E-04,2.26563727E-04,-5.09993135E-04
!MATERIAL,NAME=M162
!EXPANSION_COEFF,TYPE=FULL
-6.15953131E-04,-1.11963814E-04,-6.83705542E-04,5.05112302E-04,2.26563727E-04,-5.09993135E-04
!MATERIAL,NAME=M163
!EXPANSION_COEFF,TYPE=FULL
-6.15953131E-04,-1.11963814E-04,-6.83705542E-04,5.05112302E-04,2.26563727E-04,-5.09993135E-04
!MATERIAL,NAME=M164
!EXPANSION_COEFF,TYPE=FULL
-6.15953131E-04,-1.11963814E-04,-6.83705542E-04,5.05112302E-04,2.26563727E-04,-5.09993135E-04
!MATERIAL,NAME=M165
!EXPANSION_COEFF,TYPE=FULL
-6.15953131E-04,-1.11963814E-04,-6.83705542E-04,5.05112302E-04,2.26563727E-04,-5.09993135E-04
!MATERIAL,NAME=M166
!EXPANSION_COEFF,TYPE=FULL
-6.15953131E-04,-1.11963814E-04,-6.83705542E-04,5.05112302E-04,2.26563727E-04,-5.09993135E-04
!MATERIAL,NAME=M167
!EXPANSION_COEFF,TYPE=FULL
-6.15953131E-04,-1.11963814E-04,-6.83705542E-04,5.05112302E-04,2.26563727E-04,-5.09993135E-04
!MATERIAL,NAME=M168
!EXPANSION_COEFF,TYPE=FULL
-6.15953131E-04,-1.11963814E-04,-6.83705542E-04,5.05112302E-04,2.26563727E-04,-5.09993135E-04
!MATERIAL,NAME=M169
!EXPANSION_COEFF,TYPE=FULL
-6.15953131E-04,-1.11963814E-04,-6.83705542E-04,5.05112302E-04,2.26563727E-04,-5.09993135E-04
!MATERIAL,NAME=M170
!EXPANSION_COEFF,TYPE=FULL
-6.15953131E-04,-1.11963814E-04,-6.83705542E-04,5.05112302E-04,2.26563727E-04,-5.09993135E-04
!MATERIAL,NAME=M171
!EXPANSION_COEFF,TYPE=FULL
-6.15953131E-04,-1.11963814E-04,-6.83705542E-04,5.05112302E-04,2.26563727E-04,-5.09993135E-04
!MATERIAL,NAME=M172
!EXPANSION_COEFF,TYPE=FULL
-6.15953131E-04,-1.11963814E-04,-6.83705542E-04,5.05112302E-04,2.26563727E-04,-5.09993135E-04
!MATERIAL,NAME=M173
!EXPANSION_COEFF,TYPE=FULL
-6.15953131E-04,-1.11963814E-04,-6.83705542E-04,5.05112302E-04,2.26563727E-04,-5.09993135E-04
!MATERIAL,NAME=M174
!EXPANSION_COEFF,TYPE=FULL
-6.15953131E-04,-1.11963814E-04,-6.83705542E-04,5.05112302E-04,2.26563727E-04,-5.09993135E-04
!MATERIAL,NAME=M175
!EXPANSION_COEFF,TYPE=FULL
-6.15953131E-04,-1.11963814E-04,-6.83705542E-04,5.05112302E-04,2.26563727E-04,-5.09993135E-04
!MATERIAL,NAME=M176
!EXPANSION_COEFF,TYPE=FULL
-6.15953131E-04,-1.11963814E-04,-6.83705542E-04,5.05112302E-04,2.26563727E-04,-5.09993135E-04
!MATERIAL,NAME=M177
!EXPANSION_COEFF,TYPE=FULL
-6.15953131E-04,-1.11963814E-04,-6.83705542E-04,5.05112302E-04,2.26563727E-04,-5.09993135E-04
!MATERIAL,NAME=M178
!EXPANSION_COEFF,TYPE=FULL
-6.15953131E-04,-1.11963814E-04,-6.83705542E-04,5.05112302E-04,2.26563727E-04,-5.09993135E-04
!MATERIAL,NAME=M179
!EXPANSION_COEFF,TYPE=FULL
-6.15953131E-04,-1.11963814E-04,-6.83705542E-04,5.05112302E-04,2.26563727E-04,-5.09993135E-04
!MATERIAL,NAME=M180
!EXPANSION_COEFF,TYPE=FULL
-6.15953131E-04,-1.11963814E-04,-6.83705542E-04,5.05112302E-04,2.26563727E-04,-5.09993135E-04
!MATERIAL,NAME=M181
!EXPANSION_COEFF,TYPE=FULL
-6.15953131E-04,-1.11963814E-04,-6.83705542E-04,5.05112302E-04,2.26563727E-04,-5.09993135E-04
!MATERIAL,NAME=M182
!EXPANSION_COEFF,TYPE=FULL
-6.15953131E-04,-1.11963814E-04,-6.83705542E-04,5.05112302E-04,2.26563727E-04,-5.09993135E-04
!MATERIAL,NAME=M183
!EXPANSION_COEFF,TYPE=FULL
-6.15953131E-04,-1.11963814E-04,-6.83705542E-04,5.05112302E-04,2.26563727E-04,-5.09993135E-04
!MATERIAL,NAME=M184
!EXPANSION_COEFF,TYPE=FULL
-6.15953131E-04,-1.11963814E-04,-6.83705542E-04,5.05112302E-04,2.26563727E-04,-5.09993135E-04
!MATERIAL,NAME=M185
!EXPANSION_COEFF,TYPE=FULL
-6.15953131E-04,-1.11963814E-04,-6.83705542E-04,5.05112302E-04,2.26563727E-04,-5.09993135E-04
!MATERIAL,NAME=M186
!EXPANSION_COEFF,TYPE=FULL
-6.15953131E-04,-1.11963814E-04,-6.83705542E-04,5.05112302E-04,2.26563727E-04,-5.09993135E-04
!MATERIAL,NAME=M187
!EXPANSION_COEFF,TYPE=FULL
-6.15953131E-04,-1.11963814E-04,-6.83705542E-04,5.05112302E-04,2.26563727E-04,-5.09993135E-04
!MATERIAL,NAME=M188
!EXPANSION_COEFF,TYPE=FULL
-6.15953131E-04,-1.11963814E-04,-6.83705542E-04,5.05112302E-04,2.26563727E-04,-5.09993135E-04
!MATERIAL,NAME=M189
!EXPANSION_COEFF,TYPE=FULL
-6.15953131E-04,-1.11963814E-04,-6.83705542E-04,5.05112302E-04,2.26563727E-04,-5.09993135E-04
!MATERIAL,NAME=M190
!EXPANSION_COEFF,TYPE=FULL
-6.15953131E-04,-1.11963814E-04,-6.83705542E-04,5.05112302E-04,2.26563727E-04,-5.09993135E-04
!MATERIAL,NAME=M191
!EXPANSION_COEFF,TYPE=FULL
-6.15953131E-04,-1.11963814E-04,-6.83705542E-04,5.05112302E-04,2.26563727E-04,-5.09993135E-04
!MATERIAL,NAME=M192
!EXPANSION_COEFF,TYPE=FULL
-6.15953131E-04,-1.11963814E-04,-6.83705542E-04,5.05112302E-04,2.26563727E-04,-5.09993135E-04
!MATERIAL,NAME=M193
!EXPANSION_COEFF,TYPE=FULL
-6.15953131E-04,-1.11963814E-04,-6.83705542E-04,5.05112302E-04,2.26563727E-04,-5.09993135E-04
!MATERIAL,NAME=M194
!EXPANSION_COEFF,TYPE=FULL
-6.15953131E-04,-1.11963814E-04,-6.83705542E-04,5.05112302E-04,2.26563727E-04,-5.09993135E-04
!MATERIAL,NAME=M195
!EXPANSION_COEFF,TYPE=FULL
-6.15953131E-04,-1.11963814E-04,-6.83705542E-04,5.05112302E-04,2.26563727E-04,-5.09993135E-04
!MATERIAL,NAME=M196
!EXPANSION_COEFF,TYPE=FULL
-6.15953131E-04,-1.11963814E-04,-6.83705542E-04,5.05112302E-04,2.26563727E-04,-5.09993135E-04
!MATERIAL,NAME=M197
!EXPANSION_COEFF,TYPE=FULL
-6.15953131E-04,-1.11963814E-04,-6.83705542E-04,5.05112302E-04,2.26563727E-04,-5.09993135E-04
!MATERIAL,NAME=M198
!EXPANSION_COEFF,TYPE=FULL
-6.15953131E-04,-1.11963814E-04,-6.83705542E-04,5.05112302E-04,2.26563727E-04,-5.09993135E-04
!MATERIAL,NAME=M199
!EXPANSION_COEFF,TYPE=FULL
-6.15953131E-04,-1.11963814E-04,-6.83705542E-04,5.05112302E-04,2.26563727E-04,-5.09993135E-04
!MATERIAL,NAME=M200
!EXPANSION_COEFF,TYPE=FULL
-6.15953131E-04,-1.11963814E-04,-6.83705542E-04,5.05112302E-04,2.26563727E-04,-5.09993135E-04
!MATERIAL,NAME=M201
!EXPANSION_COEFF,TYPE=FULL
-6.15953131E-04,-1.11963814E-04,-6.83705542E-04,5.05112302E-04,2.26563727E-04,-5.09993135E-04
!MATERIAL,NAME=M202
!EXPANSION_COEFF,TYPE=FULL
-6.15953131E-04,-1.11963814E-04,-6.83705542E-04,5.05112302E-04,2.26563727E-04,-5.09993135E-04
!MATERIAL,NAME=M203
!EXPANSION_COEFF,TYPE=FULL
-6.15953131E-04,-1.11963814E-04,-6.83705542E-04,5.05112302E-04,2.26563727E-04,-5.09993135E-04
!MATERIAL,NAME=M204
!EXPANSION_COEFF,TYPE=FULL
-6.15953131E-04,-1.11963814E-04,-6.83705542E-04,5.05112302E-04,2.26563727E-04,-5.09993135E-04
!MATERIAL,NAME=M205
!EXPANSION_COEFF,TYPE=FULL
-6.15953131E-04,-1.11963814E-04,-6.83705542E-04,5.05112302E-04,2.26563727E-04,-5.09993135E-04
!MATERIAL,NAME=M206
!EXPANSION_COEFF,TYPE=FULL
-6.15953131E-04,-1.11963814E-04,-6.83705542E-04,5.05112302E-04,2.26563727E-04,-5.09993135E-04
!MATERIAL,NAME=M207
!EXPANSION_COEFF,TYPE=FULL
-6.15953131E-04,-1.11963814E-04,-6.83705542E-04,5.05112302E-04,2.26563727E-04,-5.09993135E-04
!MATERIAL,NAME=M208
!EXPANSION_COEFF,TYPE=FULL
-6.15953131E-04,-1.11963814E-04,-6.83705542E-04,5.05112302E-04,2.26563727E-04,-5.09993135E-04
!MATERIAL,NAME=M209
!EXPANSION_COEFF,TYPE=FULL
-6.15953131E-04,-1.11963814E-04,-6.83705542E-04,5.05112302E-04,2.26563727E-04,-5.09993135E-04
!MATERIAL,NAME=M210
!EXPANSION_COEFF,TYPE=FULL
-6.15953131E-04,-1.11963814E-04,-6.83705542E-04,5.05112302E-04,2.26563727E-04,-5.09993135E-04
!MATERIAL,NAME=M211
!EXPANSION_COEFF,TYPE=FULL
-6.15953131E-04,-1.11963814E-04,-6.83705542E-04,5.05112302E-04,2.26563727E-04,-5.09993135E-04
!MATERIAL,NAME=M212
!EXPANSION_COEFF,TYPE=FULL
-6.15953131E-04,-1.11963814E-04,-6.83705542E-04,5.05112302E-04,2.26563727E-04,-5.09993135E-04
!MATERIAL,NAME=M213
!EXPANSION_COEFF,TYPE=FULL
-6.15953131E-04,-1.11963814E-04,-6.83705542E-04,5.05112302E-04,2.26563727E-04,-5.09993135E-04
!MATERIAL,NAME=M214
!EXPANSION_COEFF,TYPE=FULL
-6.15953131E-04,-1.11963814E-04,-6.83705542E-04,5.05112302E-04,2.26563727E-04,-5.09993135E-04
!MATERIAL,NAME=M215
!EXPANSION_COEFF,TYPE=FULL
-6.15953131E-04,-1.11963814E-04,-6.83705542E-04,5.05112302E-04,2.26563727E-04,-5.09993135E-04
!MATERIAL,NAME=M216
!EXPANSION_COEFF,TYPE=FULL
-6.15953131E-04,-1.11963814E-04,-6.83705542E-04,5.05112302E-04,2.26563727E-04,-5.09993135E-04
!MATERIAL,NAME=M217
!EXPANSION_COEFF,TYPE=FULL
-6.15953131E-04,-1.11963814E-04,-6.83705542E-04,5.05112302E-04,2.26563727E-04,-5.09993135E-04
!MATERIAL,NAME=M218
!EXPANSION_COEFF,TYPE=FULL
-6.15953131E-04,-1.11963814E-04,-6.83705542E-04,5.05112302E-04,2.26563727E-04,-5.09993135E-04
!MATERIAL,NAME=M219
!EXPANSION_COEFF,TYPE=FULL
-6.15953131E-04,-1.11963814E-04,-6.83705542E-04,5.05112302E-04,2.26563727E-04,-5.09993135E-04
!MATERIAL,NAME=M220
!EXPANSION_COEFF,TYPE=FULL
-6.15953131E-04,-1.11963814E-04,-6.83705542E-04,5.05112302E-04,2.26563727E-04,-5.09993135E-04
!MATERIAL,NAME=M221
!EXPANSION_COEFF,TYPE=FULL
-6.15953131E-04,-1.11963814E-04,-6.83705542E-04,5.05112302E-04,2.26563727E-04,-5.09993135E-04
!MATERIAL,NAME=M222
!EXPANSION_COEFF,TYPE=FULL
-6.15953131E-04,-1.11963814E-04,-6.83705542E-04,5.05112302E-04,2.26563727E-04,-5.09993135E-04
!MATERIAL,NAME=M223
!EXPANSION_COEFF,TYPE=FULL
-6.15953131E-04,-1.11963814E-04,-6.83705542E-04,5.05112302E-04,2.26563727E-04,-5.09993135E-04
!MATERIAL,NAME=M224
!EXPANSION_COEFF,TYPE=FULL
-6.15953131E-04,-1.11963814E-04,-6.83705542E-04,5.05112302E-04,2.26563727E-04,-5.09993135E-04
!MATERIAL,NAME=M225
!EXPANSION_COEFF,TYPE=FULL
-6.15953131E-04,-1.11963814E-04,-6.83705542E-04,5.05112302E-04,2.26563727E-04,-5.09993135E-04
!MATERIAL,NAME=M226
!EXPANSION_COEFF,TYPE=FULL
-6.15953131E-04,-1.11963814E-04,-6.83705542E-04,5.05112302E-04,2.26563727E-04,-5.09993135E-04
!MATERIAL,NAME=M227
!EXPANSION_COEFF,TYPE=FULL
-6.15953131E-04,-1.11963814E-04,-6.83705542E-04,5.05112302E-04,2.26563727E-04,-5.09993135E-04
!MATERIAL,NAME=M228
!EXPANSION_COEFF,TYPE=FULL
-6.15953131E-04,-1.11963814E-04,-6.83705542E-04,5.05112302E-04,2.26563727E-04,-5.09993135E-04
!MATERIAL,NAME=M229
!EXPANSION_COEFF,TYPE=FULL
-6.15953131E-04,-1.11963814E-04,-6.83705542E-04,5.05112302E-04,2.26563727E-04,-5.09993135E-04
!MATERIAL,NAME=M230
!EXPANSION_COEFF,TYPE=FULL
-6.15953131E-04,-1.11963814E-04,-6.83705542E-04,5.05112302E-04,2.26563727E-04,-5.09993135E-04
!MATERIAL,NAME=M231
!EXPANSION_COEFF,TYPE=FULL
-6.15953131E-04,-1.11963814E-04,-6.83705542E-04,5.05112302E-04,2.26563727E-04,-5.09993135E-04
!MATERIAL,NAME=M232
!EXPANSION_COEFF,TYPE=FULL
-6.15953131E-04,-1.11963814E-04,-6.83705542E-04,5.05112302E-04,2.26563727E-04,-5.09993135E-04
!MATERIAL,NAME=M233
!EXPANSION_COEFF,TYPE=FULL
-6.15953131E-04,-1.11963814E-04,-6.83705542E-04,5.05112302E-04,2.26563727E-04,-5.09993135E-04
!MATERIAL,NAME=M234
!EXPANSION_COEFF,TYPE=FULL
-6.15953131E-04,-1.11963814E-04,-6.83705542E-04,5.05112302E-04,2.26563727E-04,-5.09993135E-04
!MATERIAL,NAME=M235
!EXPANSION_COEFF,TYPE=FULL
-6.15953131E-04,-1.11963814E-04,-6.83705542E-04,5.05112302E-04,2.26563727E-04,-5.09993135E-04
!MATERIAL,NAME=M236
!EXPANSION_COEFF,TYPE=FULL
-6.15953131E-04,-1.11963814E-04,-6.83705542E-04,5.05112302E-04,2.26563727E-04,-5.09993135E-04
!MATERIAL,NAME=M237
!EXPANSION_COEFF,TYPE=FULL
-6.15953131E-04,-1.11963814E-04,-6.83705542E-04,5.05112302E-04,2.26563727E-04,-5.09993135E-04
!MATERIAL,NAME=M238
!EXPANSION_COEFF,TYPE=FULL
-6.15953131E-04,-1.11963814E-04,-6.83705542E-04,5.05112302E-04,2.26563727E-04,-5.09993135E-04
!MATERIAL,NAME=M239
!EXPANSION_COEFF,TYPE=FULL
-6.15953131E-04,-1.11963814E-04,-6.83705542E-04,5.05112302E-04,2.26563727E-04,-5.09993135E-04
!MATERIAL,NAME=M240
!EXPANSION_COEFF,TYPE=FULL
-6.15953131E-04,-1.11963814E-04,-6.83705542E-04,5.05112302E-04,2.26563727E-04,-5.09993135E-04
!MATERIAL,NAME=M241
!EXPANSION_COEFF,TYPE=FULL
-6.15953131E-04,-1.11963814E-04,-6.83705542E-04,5.05112302E-04,2.26563727E-04,-5.09993135E-04
!MATERIAL,NAME=M242
!EXPANSION_COEFF,TYPE=FULL
-6.15953131E-04,-1.11963814E-04,-6.83705542E-04,5.05112302E-04,2.26563727E-04,-5.09993135E-04
!MATERIAL,NAME=M243
!EXPANSION_COEFF,TYPE=FULL
-6.15953131E-04,-1.11963814E-04,-6.83705542E-04,5.05112302E-04,2.26563727E-04,-5.09993135E-04
!MATERIAL,NAME=M244
!EXPANSION_COEFF,TYPE=FULL
-6.15953131E-04,-1.11963814E-04,-6.83705542E-04,5.05112302E-04,2.26563727E-04,-5.09993135E-04
!MATERIAL,NAME=M245
!EXPANSION_COEFF,TYPE=FULL
-6.15953131E-04,-1.11963814E-04,-6.83705542E-04,5.05112302E-04,2.26563727E-04,-5.09993135E-04
!MATERIAL,NAME=M246
!EXPANSION_COEFF,TYPE=FULL
-6.15953131E-04,-1.11963814E-04,-6.83705542E-04,5.05112302E-04,2.26563727E-04,-5.09993135E-04
!MATERIAL,NAME=M247
!EXPANSION_COEFF,TYPE=FULL
-6.15953131E-04,-1.11963814E-04,-6.83705542E-04,5.05112302E-04,2.26563727E-04,-5.09993135E-04
!MATERIAL,NAME=M248
!EXPANSION_COEFF,TYPE=FULL
-6.15953131E-04,-1.11963814E-04,-6.83705542E-04,5.05112302E-04,2.26563727E-04,-5.09993135E-04
!MATERIAL,NAME=M249
!EXPANSION_COEFF,TYPE=FULL
-6.15953131E-04,-1.11963814E-04,-6.83705542E-04,5.05112302E-04,2.26563727E-04,-5.09993135E-04
!MATERIAL,NAME=M250
!EXPANSION_COEFF,TYPE=FULL
-6.15953131E-04,-1.11963814E-04,-6.83705542E-04,5.05112302E-04,2.26563727E-04,-5.09993135E-04
!MATERIAL,NAME=M251
!EXPANSION_COEFF,TYPE=FULL
-6.15953131E-04,-1.11963814E-04,-6.83705542E-04,5.05112302E-04,2.26563727E-04,-5.09993135E-04
!MATERIAL,NAME=M252
!EXPANSION_COEFF,TYPE=FULL
-6.15953131E-04,-1.11963814E-04,-6.83705542E-04,5.05112302E-04,2.26563727E-04,-5.09993135E-04
!MATERIAL,NAME=M253
!EXPANSION_COEFF,TYPE=FULL
-6.15953131E-04,-1.11963814E-04,-6.83705542E-04,5.05112302E-04,2.26563727E-04,-5.09993135E-04
!MATERIAL,NAME=M254
!EXPANSION_COEFF,TYPE=FULL
-6.15953131E-04,-1.11963814E-04,-6.83705542E-04,5.05112302E-04,2.26563727E-04,-5.09993135E-04
!MATERIAL,NAME=M255
!EXPANSION_COEFF,TYPE=FULL
-6.15953131E-04,-1.11963814E-04,-6.83705542E-04,5.05112302E-04,2.26563727E-04,-5.09993135E-04
!MATERIAL,NAME=M256
!EXPANSION_COEFF,TYPE=FULL
-6.15953131E-04,-1.11963814E-04,-6.83705542E-04,5.05112302E-04,2.26563727E-04,-5.09993135E-04
!MATERIAL,NAME=M257
!EXPANSION_COEFF,TYPE=FULL
-6.15953131E-04,-1.11963814E-04,-6.83705542E-04,5.05112302E-04,2.26563727E-04,-5.09993135E-04
!MATERIAL,NAME=M258
!EXPANSION_COEFF,TYPE=FULL
-6.15953131E-04,-1.11963814E-04,-6.83705542E-04,5.05112302E-04,2.26563727E-04,-5.09993135E-04
!MATERIAL,NAME=M259
!EXPANSION_COEFF,TYPE=FULL
-6.15953131E-04,-1.11963814E-04,-6.83705542E-04,5.05112302E-04,2.26563727E-04,-5.09993135E-04
!MATERIAL,NAME=M260
!EXPANSION_COEFF,TYPE=FULL
-6.15953131E-04,-1.11963814E-04,-6.83705542E-04,5.05112302E-04,2.26563727E-04,-5.09993135E-04
!MATERIAL,NAME=M261
!EXPANSION_COEFF,TYPE=FULL
-6.15953131E-04,-1.11963814E-04,-6.83705542E-04,5.05112302E-04,2.26563727E-04,-5.09993135E-04
!MATERIAL,NAME=M262
!EXPANSION_COEFF,TYPE=FULL
-6.15953131E-04,-1.11963814E-04,-6.83705542E-04,5.05112302E-04,2.26563727E-04,-5.09993135E-04
!MATERIAL,NAME=M263
!EXPANSION_COEFF,TYPE=FULL
-6.15953131E-04,-1.11963814E-04,-6.83705542E-04,5.05112302E-04,2.26563727E-04,-5.09993135E-04
!MATERIAL,NAME=M264
!EXPANSION_COEFF,TYPE=FULL
-6.15953131E-04,-1.11963814E-04,-6.83705542E-04,5.05112302E-04,2.26563727E-04,-5.09993135E-04
!MATERIAL,NAME=M265
!EXPANSION_COEFF,TYPE=FULL
-6.15953131E-04,-1.11963814E-04,-6.83705542E-04,5.05112302E-04,2.26563727E-04,-5.09993135E-04
!MATERIAL,NAME=M266
!EXPANSION_COEFF,TYPE=FULL
-6.15953131E-04,-1.11963814E-04,-6.83705542E-04,5.05112302E-04,2.26563727E-04,-5.09993135E-04
!MATERIAL,NAME=M267
!EXPANSION_COEFF,TYPE=FULL
-6.15953131E-04,-1.11963814E-04,-6.83705542E-04,5.05112302E-04,2.26563727E-04,-5.09993135E-04
!MATERIAL,NAME=M268
!EXPANSION_COEFF,TYPE=FULL
-6.15953131E-04,-1.11963814E-04,-6.83705542E-04,5.05112302E-04,2.26563727E-04,-5.09993135E-04
!MATERIAL,NAME=M269
!EXPANSION_COEFF,TYPE=FULL
-6.15953131E-04,-1.11963814E-04,-6.83705542E-04,5.05112302E-04,2.26563727E-04,-5.09993135E-04
!MATERIAL,NAME=M270
!EXPANSION_COEFF,TYPE=FULL
-6.15953131E-04,-1.11963814E-04,-6.83705542E-04,5.05112302E-04,2.26563727E-04,-5.09993135E-04
!MATERIAL,NAME=M271
!EXPANSION_COEFF,TYPE=FULL
-6.15953131E-04,-1.11963814E-04,-6.83705542E-04,5.05112302E-04,2.26563727E-04,-5.09993135E-04
!MATERIAL,NAME=M272
!EXPANSION_COEFF,TYPE=FULL
-6.15953131E-04,-1.11963814E-04,-6.83705542E-04,5.05112302E-04,2.26563727E-04,-5.09993135E-04
!MATERIAL,NAME=M273
!EXPANSION_COEFF,TYPE=FULL
-6.15953131E-04,-1.11963814E-04,-6.83705542E-04,5.05112302E-04,2.26563727E-04,-5.09993135E-04
!MATERIAL,NAME=M274
!EXPANSION_COEFF,TYPE=FULL
-6.15953131E-04,-1.11963814E-04,-6.83705542E-04,5.05112302E-04,2.26563727E-04,-5.09993135E-04
!MATERIAL,NAME=M275
!EXPANSION_COEFF,TYPE=FULL
-6.15953131E-04,-1.11963814E-04,-6.83705542E-04,5.05112302E-04,2.26563727E-04,-5.09993135E-04
!MATERIAL,NAME=M276
!EXPANSION_COEFF,TYPE=FULL
-6.15953131E-04,-1.11963814E-04,-6.83705542E-04,5.05112302E-04,2.26563727E-04,-5.09993135E-04
!MATERIAL,NAME=M277
!EXPANSION_COEFF,TYPE=FULL
-6.15953131E-04,-1.11963814E-04,-6.83705542E-04,5.05112302E-04,2.26563727E-04,-5.09993135E-04
!MATERIAL,NAME=M278
!EXPANSION_COEFF,TYPE=FULL
-6.15953131E-04,-1.11963814E-04,-6.83705542E-04,5.05112302E-04,2.26563727E-04,-5.09993135E-04
!MATERIAL,NAME=M279
!EXPANSION_COEFF,TYPE=FULL
-6.15953131E-04,-1.11963814E-04,-6.83705542E-04,5.05112302E-04,2.26563727E-04,-5.09993135E-04
!MATERIAL,NAME=M280
!EXPANSION_COEFF,TYPE=FULL
-6.15953131E-04,-1.11963814E-04,-6.83705542E-04,5.05112302E-04,2.26563727E-04,-5.09993135E-04
!MATERIAL,NAME=M281
!EXPANSION_COEFF,TYPE=FULL
-6.15953131E-04,-1.11963814E-04,-6.83705542E-04,5.05112302E-04,2.26563727E-04,-5.09993135E-04
!MATERIAL,NAME=M282
!EXPANSION_COEFF,TYPE=FULL
-6.15953131E-04,-1.11963814E-04,-6.83705542E-04,5.05112302E-04,2.26563727E-04,-5.09993135E-04
!MATERIAL,NAME=M283
!EXPANSION_COEFF,TYPE=FULL
-6.15953131E-04,-1.11963814E-04,-6.83705542E-04,5.05112302E-04,2.26563727E-04,-5.09993135E-04
!MATERIAL,NAME=M284
!EXPANSION_COEFF,TYPE=FULL
-6.15953131E-04,-1.11963814E-04,-6.83705542E-04,5.05112302E-04,2.26563727E-04,-5.09993135E-04
!MATERIAL,NAME=M285
!EXPANSION_COEFF,TYPE=FULL
-6.15953131E-04,-1.11963814E-04,-6.83705542E-04,5.05112302E-04,2.26563727E-04,-5.09993135E-04
!MATERIAL,NAME=M286
!EXPANSION_COEFF,TYPE=FULL
-6.15953131E-04,-1.11963814E-04,-6.83705542E-04,5.05112302E-04,2.26563727E-04,-5.09993135E-04
!MATERIAL,NAME=M287
!EXPANSION_COEFF,TYPE=FULL
-6.15953131E-04,-1.11963814E-04,-6.83705542E-04,5.05112302E-04,2.26563727E-04,-5.09993135E-04
!MATERIAL,NAME=M288
!EXPANSION_COEFF,TYPE=FULL
-6.15953131E-04,-1.11963814E-04,-6.83705542E-04,5.05112302E-04,2.26563727E-04,-5.09993135E-04
!MATERIAL,NAME=M289
!EXPANSION_COEFF,TYPE=FULL
-6.15953131E-04,-1.11963814E-04,-6.83705542E-04,5.05112302E-04,2.26563727E-04,-5.09993135E-04
!MATERIAL,NAME=M290
!EXPANSION_COEFF,TYPE=FULL
-6.15953131E-04,-1.11963814E-04,-6.83705542E-04,5.05112302E-04,2.26563727E-04,-5.09993135E-04
!MATERIAL,NAME=M291
!EXPANSION_COEFF,TYPE=FULL
-6.15953131E-04,-1.11963814E-04,-6.83705542E-04,5.05112302E-04,2.26563727E-04,-5.09993135E-04
!MATERIAL,NAME=M292
!EXPANSION_COEFF,TYPE=FULL
-6.15953131E-04,-1.11963814E-04,-6.83705542E-04,5.05112302E-04,2.26563727E-04,-5.09993135E-04
!MATERIAL,NAME=M293
!EXPANSION_COEFF,TYPE=FULL
-6.15953131E-04,-1.11963814E-04,-6.83705542E-04,5.05112302E-04,2.26563727E-04,-5.09993135E-04
!MATERIAL,NAME=M294
!EXPANSION_COEFF,TYPE=FULL
-6.15953131E-04,-1.11963814E-04,-6.83705542E-04,5.05112302E-04,2.26563727E-04,-5.09993135E-04
!MATERIAL,NAME=M295
!EXPANSION_COEFF,TYPE=FULL
-6.15953131E-04,-1.11963814E-04,-6.83705542E-04,5.05112302E-04,2.26563727E-04,-5.09993135E-04
!MATERIAL,NAME=M296
!EXPANSION_COEFF,TYPE=FULL
-6.15953131E-04,-1.11963814E-04,-6.83705542E-04,5.05112302E-04,2.26563727E-04,-5.09993135E-04
!MATERIAL,NAME=M297
!EXPANSION_COEFF,TYPE=FULL
-6.15953131E-04,-1.11963814E-04,-6.83705542E-04,5.05112302E-04,2.26563727E-04,-5.09993135E-04
!MATERIAL,NAME=M298
!EXPANSION_COEFF,TYPE=FULL
-6.15953131E-04,-1.11963814E-04,-6.83705542E-04,5.05112302E-04,2.26563727E-04,-5.09993135E-04
!MATERIAL,NAME=M299
!EXPANSION_COEFF,TYPE=FULL
-6.15953131E-04,-1.11963814E-04,-6.83705542E-04,5.05112302E-04,2.26563727E-04,-5.09993135E-04
!MATERIAL,NAME=M300
!EXPANSION_COEFF,TYPE=FULL
-6.15953131E-04,-1.11963814E-04,-6.83705542E-04,5.05112302E-04,2.26563727E-04,-5.09993135E-04
!MATERIAL,NAME=M301
!EXPANSION_COEFF,TYPE=FULL
-6.15953131E-04,-1.11963814E-04,-6.83705542E-04,5.05112302E-04,2.26563727E-04,-5.09993135E-04
!MATERIAL,NAME=M302
!EXPANSION_COEFF,TYPE=FULL
-6.15953131E-04,-1.11963814E-04,-6.83705542E-04,5.05112302E-04,2.26563727E-04,-5.09993135E-04
!MATERIAL,NAME=M303
!EXPANSION_COEFF,TYPE=FULL
-6.15953131E-04,-1.11963814E-04,-6.83705542E-04,5.05112302E-04,2.26563727E-04,-5.09993135E-04
!MATERIAL,NAME=M304
!EXPANSION_COEFF,TYPE=FULL
-6.15953131E-04,-1.11963814E-04,-6.83705542E-04,5.05112302E-04,2.26563727E-04,-5.09993135E-04
!MATERIAL,NAME=M305
!EXPANSION_COEFF,TYPE=FULL
-6.15953131E-04,-1.11963814E-04,-6.83705542E-04,5.05112302E-04,2.26563727E-04,-5.09993135E-04
!MATERIAL,NAME=M306
!EXPANSION_COEFF,TYPE=FULL
-6.15953131E-04,-1.11963814E-04,-6.83705542E-04,5.05112302E-04,2.26563727E-04,-5.09993135E-04
!MATERIAL,NAME=M307
!EXPANSION_COEFF,TYPE=FULL
-6.15953131E-04,-1.11963814E-04,-6.83705542E-04,5.05112302E-04,2.26563727E-04,-5.09993135E-04
!MATERIAL,NAME=M308
!EXPANSION_COEFF,TYPE=FULL
-6.15953131E-04,-1.11963814E-04,-6.83705542E-04,5.05112302E-04,2.26563727E-04,-5.09993135E-04
!MATERIAL,NAME=M309
!EXPANSION_COEFF,TYPE=FULL
-6.15953131E-04,-1.11963814E-04,-6.83705542E-04,5.05112302E-04,2.26563727E-04,-5.09993135E-04
!MATERIAL,NAME=M310
!EXPANSION_COEFF,TYPE=FULL
-6.15953131E-04,-1.11963814E-04,-6.83705542E-04,5.05112302E-04,2.26563727E-04,-5.09993135E-04
!MATERIAL,NAME=M311
!EXPANSION_COEFF,TYPE=FULL
-6.15953131E-04,-1.11963814E-04,-6.83705542E-04,5.05112302E-04,2.26563727E-04,-5.09993135E-04
!MATERIAL,NAME=M312
!EXPANSION_COEFF,TYPE=FULL
-6.15953131E-04,-1.11963814E-04,-6.83705542E-04,5.05112302E-04,2.26563727E-04,-5.09993135E-04
!MATERIAL,NAME=M313
!EXPANSION_COEFF,TYPE=FULL
-6.15953131E-04,-1.11963814E-04,-6.83705542E-04,5.05112302E-04,2.26563727E-04,-5.09993135E-04
!MATERIAL,NAME=M314
!EXPANSION_COEFF,TYPE=FULL
-6.15953131E-04,-1.11963814E-04,-6.83705542E-04,5.05112302E-04,2.26563727E-04,-5.09993135E-04
!MATERIAL,NAME=M315
!EXPANSION_COEFF,TYPE=FULL
-6.15953131E-04,-1.11963814E-04,-6.83705542E-04,5.05112302E-04,2.26563727E-04,-5.09993135E-04
!MATERIAL,NAME=M316
!EXPANSION_COEFF,TYPE=FULL
-6.15953131E-04,-1.11963814E-04,-6.83705542E-04,5.05112302E-04,2.26563727E-04,-5.09993135E-04
!MATERIAL,NAME=M317
!EXPANSION_COEFF,TYPE=FULL
-6.15953131E-04,-1.11963814E-04,-6.83705542E-04,5.05112302E-04,2.26563727E-04,-5.09993135E-04
!MATERIAL,NAME=M318
!EXPANSION_COEFF,TYPE=FULL
-6.15953131E-04,-1.11963814E-04,-6.83705542E-04,5.05112302E-04,2.26563727E-04,-5.09993135E-04
!MATERIAL,NAME=M319
!EXPANSION_COEFF,TYPE=FULL
-6.15953131E-04,-1.11963814E-04,-6.83705542E-04,5.05112302E-04,2.26563727E-04,-5.09993135E-04
!MATERIAL,NAME=M320
!EXPANSION_COEFF,TYPE=FULL
-6.15953131E-04,-1.11963814E-04,-6.83705542E-04,5.05112302E-04,2.26563727E-04,-5.09993135E-04
!MATERIAL,NAME=M321
!EXPANSION_COEFF,TYPE=FULL
-6.15953131E-04,-1.11963814E-04,-6.83705542E-04,5.05112302E-04,2.26563727E-04,-5.09993135E-04
!MATERIAL,NAME=M322
!EXPANSION_COEFF,TYPE=FULL
-6.15953131E-04,-1.11963814E-04,-6.83705542E-04,5.05112302E-04,2.26563727E-04,-5.09993135E-04
!MATERIAL,NAME=M323
!EXPANSION_COEFF,TYPE=FULL
-6.15953131E-04,-1.11963814E-04,-6.83705542E-04,5.05112302E-04,2.26563727E-04,-5.09993135E-04
!MATERIAL,NAME=M324
!EXPANSION_COEFF,TYPE=FULL
-6.15953131E-04,-1.11963814E-04,-6.83705542E-04,5.05112302E-04,2.26563727E-04,-5.09993135E-04
!MATERIAL,NAME=M325
!EXPANSION_COEFF,TYPE=FULL
-6.15953131E-04,-1.11963814E-04,-6.83705542E-04,5.05112302E-04,2.26563727E-04,-5.09993135E-04
!MATERIAL,NAME=M326
!EXPANSION_COEFF,TYPE=FULL
-6.15953131E-04,-1.11963814E-04,-6.83705542E-04,5.05112302E-04,2.26563727E-04,-5.09993135E-04
!MATERIAL,NAME=M327
!EXPANSION_COEFF,TYPE=FULL
-6.15953131E-04,-1.11963814E-04,-6.83705542E-04,5.05112302E-04,2.26563727E-04,-5.09993135E-04
!MATERIAL,NAME=M328
!EXPANSION_COEFF,TYPE=FULL
-6.15953131E-04,-1.11963814E-04,-6.83705542E-04,5.05112302E-04,2.26563727E-04,-5.09993135E-04
!MATERIAL,NAME=M329
!EXPANSION_COEFF,TYPE=FULL
-6.15953131E-04,-1.11963814E-04,-6.83705542E-04,5.05112302E-04,2.26563727E-04,-5.09993135E-04
!MATERIAL,NAME=M330
!EXPANSION_COEFF,TYPE=FULL
-6.15953131E-04,-1.11963814E-04,-6.83705542E-04,5.05112302E-04,2.26563727E-04,-5.09993135E-04
!MATERIAL,NAME=M331
!EXPANSION_COEFF,TYPE=FULL
-6.15953131E-04,-1.11963814E-04,-6.83705542E-04,5.05112302E-04,2.26563727E-04,-5.09993135E-04
!MATERIAL,NAME=M332
!EXPANSION_COEFF,TYPE=FULL
-6.15953131E-04,-1.11963814E-04,-6.83705542E-04,5.05112302E-04,2.26563727E-04,-5.09993135E-04
!MATERIAL,NAME=M333
!EXPANSION_COEFF,TYPE=FULL
-6.15953131E-04,-1.11963814E-04,-6.83705542E-04,5.05112302E-04,2.26563727E-04,-5.09993135E-04
!MATERIAL,NAME=M334
!EXPANSION_COEFF,TYPE=FULL
-6.15953131E-04,-1.11963814E-04,-6.83705542E-04,5.05112302E-04,2.26563727E-04,-5.09993135E-04
!MATERIAL,NAME=M335
!EXPANSION_COEFF,TYPE=FULL
-6.15953131E-04,-1.11963814E-04,-6.83705542E-04,5.05112302E-04,2.26563727E-04,-5.09993135E-04
!MATERIAL,NAME=M336
!EXPANSION_COEFF,TYPE=FULL
-6.15953131E-04,-1.11963814E-04,-6.83705542E-04,5.05112302E-04,2.26563727E-04,-5.09993135E-04
!MATERIAL,NAME=M337
!EXPANSION_COEFF,TYPE=FULL
-6.15953131E-04,-1.11963814E-04,-6.83705542E-04,5.05112302E-04,2.26563727E-04,-5.09993135E-04
!MATERIAL,NAME=M338
!EXPANSION_COEFF,TYPE=FULL
-6.15953131E-04,-1.11963814E-04,-6.83705542E-04,5.05112302E-04,2.26563727E-04,-5.09993135E-04
!MATERIAL,NAME=M339
!EXPANSION_COEFF,TYPE=FULL
-6.15953131E-04,-1.11963814E-04,-6.83705542E-04,5.05112302E-04,2.26563727E-04,-5.09993135E-04
!MATERIAL,NAME=M340
!EXPANSION_COEFF,TYPE=FULL
-6.15953131E-04,-1.11963814E-04,-6.83705542E-04,5.05112302E-04,2.26563727E-04,-5.09993135E-04
!MATERIAL,NAME=M341
!EXPANSION_COEFF,TYPE=FULL
-6.15953131E-04,-1.11963814E-04,-6.83705542E-04,5.05112302E-04,2.26563727E-04,-5.09993135E-04
!MATERIAL,NAME=M342
!EXPANSION_COEFF,TYPE=FULL
-6.15953131E-04,-1.11963814E-04,-6.83705542E-04,5.05112302E-04,2.26563727E-04,-5.09993135E-04
!MATERIAL,NAME=M343
!EXPANSION_COEFF,TYPE=FULL
-6.15953131E-04,-1.11963814E-04,-6.83705542E-04,5.05112302E-04,2.26563727E-04,-5.09993135E-04
!MATERIAL,NAME=M344
!EXPANSION_COEFF,TYPE=FULL
-6.15953131E-04,-1.11963814E-04,-6.83705542E-04,5.05112302E-04,2.26563727E-04,-5.09993135E-04
!MATERIAL,NAME=M345
!EXPANSION_COEFF,TYPE=FULL
-6.15953131E-04,-1.11963814E-04,-6.83705542E-04,5.05112302E-04,2.26563727E-04,-5.09993135E-04
!MATERIAL,NAME=M346
!EXPANSION_COEFF,TYPE=FULL
-6.15953131E-04,-1.11963814E-04,-6.83705542E-04,5.05112302E-04,2.26563727E-04,-5.09993135E-04
!MATERIAL,NAME=M347
!EXPANSION_COEFF,TYPE=FULL
-6.15953131E-04,-1.11963814E-04,-6.83705542E-04,5.05112302E-04,2.26563727E-04,-5.09993135E-04
!MATERIAL,NAME=M348
!EXPANSION_COEFF,TYPE=FULL
-6.15953131E-04,-1.11963814E-04,-6.83705542E-04,5.05112302E-04,2.26563727E-04,-5.09993135E-04
!MATERIAL,NAME=M349
!EXPANSION_COEFF,TYPE=FULL
-6.15953131E-04,-1.11963814E-04,-6.83705542E-04,5.05112302E-04,2.26563727E-04,-5.09993135E-04
!MATERIAL,NAME=M350
!EXPANSION_COEFF,TYPE=FULL
-6.15953131E-04,-1.11963814E-04,-6.83705542E-04,5.05112302E-04,2.26563727E-04,-5.09993135E-04
!MATERIAL,NAME=M351
!EXPANSION_COEFF,TYPE=FULL
-6.15953131E-04,-1.11963814E-04,-6.83705542E-04,5.05112302E-04,2.26563727E-04,-5.09993135E-04
!MATERIAL,NAME=M352
!EXPANSION_COEFF,TYPE=FULL
-6.15953131E-04,-1.11963814E-04,-6.83705542E-04,5.05112302E-04,2.26563727E-04,-5.09993135E-04
!MATERIAL,NAME=M353
!EXPANSION_COEFF,TYPE=FULL
-6.15953131E-04,-1.11963814E-04,-6.83705542E-04,5.05112302E-04,2.26563727E-04,-5.09993135E-04
!MATERIAL,NAME=M354
!EXPANSION_COEFF,TYPE=FULL
-6.15953131E-04,-1.11963814E-04,-6.83705542E-04,5.05112302E-04,2.26563727E-04,-5.09993135E-04
!MATERIAL,NAME=M355
!EXPANSION_COEFF,TYPE=FULL
-6.15953131E-04,-1.11963814E-04,-6.83705542E-04,5.05112302E-04,2.26563727E-04,-5.09993135E-04
!MATERIAL,NAME=M356
!EXPANSION_COEFF,TYPE=FULL
-6.15953131E-04,-1.11963814E-04,-6.83705542E-04,5.05112302E-04,2.26563727E-04,-5.09993135E-04
!MATERIAL,NAME=M357
!EXPANSION_COEFF,TYPE=FULL
-6.15953131E-04,-1.11963814E-04,-6.83705542E-04,5.05112302E-04,2.26563727E-04,-5.09993135E-04
!MATERIAL,NAME=M358
!EXPANSION_COEFF,TYPE=FULL
-6.15953131E-04,-1.11963814E-04,-6.83705542E-04,5.05112302E-04,2.26563727E-04,-5.09993135E-04
!MATERIAL,NAME=M359
!EXPANSION_COEFF,TYPE=FULL
-6.15953131E-04,-1.11963814E-04,-6.83705542E-04,5.05112302E-04,2.26563727E-04,-5.09993135E-04
!MATERIAL,NAME=M360
!EXPANSION_COEFF,TYPE=FULL
-6.15953131E-04,-1.11963814E-04,-6.83705542E-04,5.05112302E-04,2.26563727E-04,-5.09993135E-04
!MATERIAL,NAME=M361
!EXPANSION_COEFF,TYPE=FULL
-6.15953131E-04,-1.11963814E-04,-6.83705542E-04,5.05112302E-04,2.26563727E-04,-5.09993135E-04
!MATERIAL,NAME=M362
!EXPANSION_COEFF,TYPE=FULL
-6.15953131E-04,-1.11963814E-04,-6.83705542E-04,5.05112302E-04,2.26563727E-04,-5.09993135E-04
!MATERIAL,NAME=M363
!EXPANSION_COEFF,TYPE=FULL
-6.15953131E-04,-1.11963814E-04,-6.83705542E-04,5.05112302E-04,2.26563727E-04,-5.09993135E-04
!MATERIAL,NAME=M364
!EXPANSION_COEFF,TYPE=FULL
-6.15953131E-04,-1.11963814E-04,-6.83705542E-04,5.05112302E-04,2.26563727E-04,-5.09993135E-04
!MATERIAL,NAME=M365
!EXPANSION_COEFF,TYPE=FULL
-6.15953131E-04,-1.11963814E-04,-6.83705542E-04,5.05112302E-04,2.26563727E-04,-5.09993135E-04
!MATERIAL,NAME=M366
!EXPANSION_COEFF,TYPE=FULL
-6.15953131E-04,-1.11963814E-04,-6.83705542E-04,5.05112302E-04,2.26563727E-04,-5.09993135E-04
!MATERIAL,NAME=M367
!EXPANSION_COEFF,TYPE=FULL
-6.15953131E-04,-1.11963814E-04,-6.83705542E-04,5.05112302E-04,2.26563727E-04,-5.09993135E-04
!MATERIAL,NAME=M368
!EXPANSION_COEFF,TYPE=FULL
-6.15953131E-04,-1.11963814E-04,-6.83705542E-04,5.05112302E-04,2.26563727E-04,-5.09993135E-04
!MATERIAL,NAME=M369
!EXPANSION_COEFF,TYPE=FULL
-6.15953131E-04,-1.11963814E-04,-6.83705542E-04,5.05112302E-04,2.26563727E-04,-5.09993135E-04
!MATERIAL,NAME=M370
!EXPANSION_COEFF,TYPE=FULL
-6.15953131E-04,-1.11963814E-04,-6.83705542E-04,5.05112302E-04,2.26563727E-04,-5.09993135E-04
!MATERIAL,NAME=M371
!EXPANSION_COEFF,TYPE=FULL
-6.15953131E-04,-1.11963814E-04,-6.83705542E-04,5.05112302E-04,2.26563727E-04,-5.09993135E-04
!MATERIAL,NAME=M372
!EXPANSION_COEFF,TYPE=FULL
-6.15953131E-04,-1.11963814E-04,-6.83705542E-04,5.05112302E-04,2.26563727E-04,-5.09993135E-04
!MATERIAL,NAME=M373
!EXPANSION_COEFF,TYPE=FULL
-6.15953131E-04,-1.11963814E-04,-6.83705542E-04,5.05112302E-04,2.26563727E-04,-5.09993135E-04
!MATERIAL,NAME=M374
!EXPANSION_COEFF,TYPE=FULL
-6.15953131E-04,-1.11963814E-04,-6.83705542E-04,5.05112302E-04,2.26563727E-04,-5.09993135E-04
!MATERIAL,NAME=M375
!EXPANSION_COEFF,TYPE=FULL
-6.15953131E-04,-1.11963814E-04,-6.83705542E-04,5.05112302E-04,2.26563727E-04,-5.09993135E-04
!MATERIAL,NAME=M376
!EXPANSION_COEFF,TYPE=FULL
-6.15953131E-04,-1.11963814E-04,-6.83705542E-04,5.05112302E-04,2.26563727E-04,-5.09993135E-04
!MATERIAL,NAME=M377
!EXPANSION_COEFF,TYPE=FULL
-6.15953131E-04,-1.11963814E-04,-6.83705542E-04,5.05112302E-04,2.26563727E-04,-5.09993135E-04
!MATERIAL,NAME=M378
!EXPANSION_COEFF,TYPE=FULL
-6.15953131E-04,-1.11963814E-04,-6.83705542E-04,5.05112302E-04,2.26563727E-04,-5.09993135E-04
!MATERIAL,NAME=M379
!EXPANSION_COEFF,TYPE=FULL
-6.15953131E-04,-1.11963814E-04,-6.83705542E-04,5.05112302E-04,2.26563727E-04,-5.09993135E-04
!MATERIAL,NAME=M380
!EXPANSION_COEFF,TYPE=FULL
-6.15953131E-04,-1.11963814E-04,-6.83705542E-04,5.05112302E-04,2.26563727E-04,-5.09993135E-04
!MATERIAL,NAME=M381
!EXPANSION_COEFF,TYPE=FULL
-6.15953131E-04,-1.11963814E-04,-6.83705542E-04,5.05112302E-04,2.26563727E-04,-5.09993135E-04
!MATERIAL,NAME=M382
!EXPANSION_COEFF,TYPE=FULL
-6.15953131E-04,-1.11963814E-04,-6.83705542E-04,5.05112302E-04,2.26563727E-04,-5.09993135E-04
!MATERIAL,NAME=M383
!EXPANSION_COEFF,TYPE=FULL
-6.15953131E-04,-1.11963814E-04,-6.83705542E-04,5.05112302E-04,2.26563727E-04,-5.09993135E-04
!MATERIAL,NAME=M384
!EXPANSION_COEFF,TYPE=FULL
-6.15953131E-04,-1.11963814E-04,-6.83705542E-04,5.05112302E-04,2.26563727E-04,-5.09993135E-04
!MATERIAL,NAME=M385
!EXPANSION_COEFF,TYPE=FULL
-6.15953131E-04,-1.11963814E-04,-6.83705542E-04,5.05112302E-04,2.26563727E-04,-5.09993135E-04
!MATERIAL,NAME=M386
!EXPANSION_COEFF,TYPE=FULL
-6.15953131E-04,-1.11963814E-04,-6.83705542E-04,5.05112302E-04,2.26563727E-04,-5.09993135E-04
!MATERIAL,NAME=M387
!EXPANSION_COEFF,TYPE=FULL
-6.15953131E-04,-1.11963814E-04,-6.83705542E-04,5.05112302E-04,2.26563727E-04,-5.09993135E-04
!MATERIAL,NAME=M388
!EXPANSION_COEFF,TYPE=FULL
-6.15953131E-04,-1.11963814E-04,-6.83705542E-04,5.05112302E-04,2.26563727E-04,-5.09993135E-04
!MATERIAL,NAME=M389
!EXPANSION_COEFF,TYPE=FULL
-6.15953131E-04,-1.11963814E-04,-6.83705542E-04,5.05112302E-04,2.26563727E-04,-5.09993135E-04
!MATERIAL,NAME=M390
!EXPANSION_COEFF,TYPE=FULL
-6.15953131E-04,-1.11963814E-04,-6.83705542E-04,5.05112302E-04,2.26563727E-04,-5.09993135E-04
!MATERIAL,NAME=M391
!EXPANSION_COEFF,TYPE=FULL
-6.15953131E-04,-1.11963814E-04,-6.83705542E-04,5.05112302E-04,2.26563727E-04,-5.09993135E-04
!MATERIAL,NAME=M392
!EXPANSION_COEFF,TYPE=FULL
-6.15953131E-04,-1.11963814E-04,-6.83705542E-04,5.05112302E-04,2.26563727E-04,-5.09993135E-04
!MATERIAL,NAME=M393
!EXPANSION_COEFF,TYPE=FULL
-6.15953131E-04,-1.11963814E-04,-6.83705542E-04,5.05112302E-04,2.26563727E-04,-5.09993135E-04
!SOLVER,METHOD=MUMPS,PRECOND=1,ITERLOG=YES,TIMELOG=YES
100000000, 1
1.0e-08, 1.0, 0.0
!VISUAL, method=PSR
!surface_num = 1
!surface 1
!output_type = COMPLETE_REORDER_AVS
!END
