!VERSION
5
!SOLUTION, TYPE=HEAT
!HEAT
0.01,1.0,0.0,1.0,100,1e-06
!WRITE,RESULT, FREQUENCY=10
!WRITE,VISUAL, FREQUENCY=10
!OUTPUT_RES
ESTRAIN,ON
ESTRESS,ON
EMISES,ON
ISTRAIN,ON
ITEMP,ON
!OUTPUT_VIS
ESTRAIN,ON
ESTRESS,ON
EMISES,ON
TEMPERATURE,ON
!FIXTEMP
2,1.122078700420E-01
24,-1.674443721520E-01
25,-2.481371706974E-01
26,-2.214209740810E-01
27,-1.058793101884E-01
28,4.862473612529E-02
29,1.748573597460E-01
30,2.285715146146E-01
31,2.121739870574E-01
32,1.628293885221E-01
33,1.245261118040E-01
34,1.249525700340E-01
35,1.689725174125E-01
39,-1.356520897659E-01
40,-3.565111137237E-01
68,-1.335974330259E-01
69,-3.916832255706E-01
70,-5.765871441690E-01
71,-6.690841640416E-01
72,-6.853894827270E-01
# ... 632 like lines cut
!CFLUX, TYPE=PURE
1,5.103567363199E-03
3,5.198729389424E-03
4,6.002785803386E-03
5,5.810909081140E-03
6,4.741887496806E-03
7,4.768945467333E-03
8,4.794335206013E-03
9,4.953275718468E-03
10,4.921410178944E-03
11,4.958912584180E-03
12,4.911852337185E-03
13,5.468942422761E-03
14,7.110295367299E-03
15,8.147171121512E-03
16,9.358219566631E-03
17,9.228248406745E-03
18,7.693360563413E-03
19,4.313089591130E-03
20,2.379927635686E-03
21,1.365932319517E-03
# ... 900 like lines cut
!MATERIAL,NAME=MAT_ALL
!CONDUCTIVITY,TYPE=FULL,DEPENDENCIES=1
0.00323188591615557,0.004136547636349509,0.018084045983176377,0.00046224659633451376,0.003460220948324096,-0.0003152242328871476,-1.0
0.001615942958077785,0.0020682738181747543,0.009042022991588189,0.00023112329816725688,0.001730110474162048,-0.0001576121164435738,1.0
!SOLVER,METHOD=MUMPS,PRECOND=1,ITERLOG=YES,TIMELOG=YES
100000000, 1
1.0e-08, 1.0, 0.0
!VISUAL, method=PSR
!surface_num = 1
!surface 1
!output_type = COMPLETE_REORDER_AVS
!END
