!VERSION
5
!SOLUTION, TYPE=HEAT
!HEAT
0.01,1.0,0.0,1.0,100,1e-06
!WRITE,RESULT, FREQUENCY=10
!WRITE,VISUAL, FREQUENCY=10
!OUTPUT_RES
ESTRAIN,ON
ESTRESS,ON
EMISES,ON
ISTRAIN,ON
ITEMP,ON
!OUTPUT_VIS
ESTRAIN,ON
ESTRESS,ON
EMISES,ON
TEMPERATURE,ON
!FIXTEMP
1,-1.048045288650E-01
3,-3.124223969522E-01
4,-3.543218537935E-01
5,-2.851761768074E-01
6,-2.577590388619E-01
7,-2.588436890370E-01
8,-2.817624145219E-01
9,-3.721680712313E-01
10,-4.095086488950E-01
11,-2.453099729487E-01
12,-3.750250014393E-02
13,6.352104675023E-03
14,-4.625611210231E-02
15,-9.690589730410E-02
16,-1.347586114550E-01
17,-1.644241679042E-01
18,-1.460710633394E-01
19,-1.899519013897E-02
20,1.394865762747E-01
21,1.015262958385E-01
# ... 559 like lines cut
!CFLUX, TYPE=PURE
2,-1.320392170806E-02
27,-2.771811289905E-04
28,-7.453324034763E-04
29,-8.351884147250E-04
30,-1.232555975199E-04
31,1.062546475338E-03
32,7.381443155480E-04
33,2.493244202840E-04
39,-5.611625904210E-03
40,-5.502947005145E-03
41,-4.015995230932E-03
42,-4.762409246349E-03
43,-6.551825912531E-03
44,-5.973106670432E-03
45,-3.003897937234E-03
46,-1.053459901030E-03
47,-7.988126507968E-04
48,-5.314874239703E-04
49,2.706102764745E-04
50,8.415843869979E-04
# ... 973 like lines cut
!MATERIAL,NAME=MAT_ALL
!CONDUCTIVITY,TYPE=FULL,DEPENDENCIES=1
0.01418154771834835,0.017448796106155955,0.01162381623844517,-0.002260339783938003,-0.0014695745183563936,-0.004467673814391899,-1.0
0.007090773859174175,0.008724398053077977,0.005811908119222585,-0.0011301698919690016,-0.0007347872591781968,-0.0022338369071959493,1.0
!SOLVER,METHOD=MUMPS,PRECOND=1,ITERLOG=YES,TIMELOG=YES
100000000, 1
1.0e-08, 1.0, 0.0
!VISUAL, method=PSR
!surface_num = 1
!surface 1
!output_type = COMPLETE_REORDER_AVS
!END
